<?xml version="1.0" encoding="UTF-8"?>

<!-- generated on 2025-02-23 12:47:51 by Eclipse SUMO netedit Version 1.20.0
<configuration xmlns:xsi="http://www.w3.org/2001/XMLSchema-instance" xsi:noNamespaceSchemaLocation="http://sumo.dlr.de/xsd/neteditConfiguration.xsd">

    <input>
        <sumo-net-file value="C:\Users\Administrator\Desktop\MySumo\stage 9(DRM with low congestion)\SUMO files\stage9.net.xml"/>
    </input>

    <output>
        <output-file value="C:\Users\Administrator\Desktop\MySumo\stage 9(DRM with low congestion)\SUMO files\stage9.net.xml"/>
    </output>

    <processing>
        <geometry.min-radius.fix.railways value="false"/>
        <geometry.max-grade.fix value="false"/>
        <offset.disable-normalization value="true"/>
        <lefthand value="0"/>
    </processing>

    <junctions>
        <no-turnarounds value="true"/>
        <junctions.corner-detail value="5"/>
        <junctions.limit-turn-speed value="5.50"/>
        <rectangular-lane-cut value="0"/>
    </junctions>

    <pedestrian>
        <walkingareas value="0"/>
    </pedestrian>

</configuration>
-->

<net version="1.20" junctionCornerDetail="5" limitTurnSpeed="5.50" xmlns:xsi="http://www.w3.org/2001/XMLSchema-instance" xsi:noNamespaceSchemaLocation="http://sumo.dlr.de/xsd/net_file.xsd">

    <location netOffset="0.00,0.00" convBoundary="-24.70,1.04,112.05,100.00" origBoundary="-10000000000.00,-10000000000.00,10000000000.00,10000000000.00" projParameter="!"/>

    <edge id=":J1_0" function="internal">
        <lane id=":J1_0_0" index="0" speed="6.61" length="9.24" shape="51.34,52.80 48.85,53.14 47.04,54.19 45.93,55.97 45.50,58.46"/>
    </edge>
    <edge id=":J1_1" function="internal">
        <lane id=":J1_1_0" index="0" speed="13.89" length="14.52" shape="51.34,52.80 36.82,52.73"/>
    </edge>
    <edge id=":J1_2" function="internal">
        <lane id=":J1_2_0" index="0" speed="7.98" length="4.04" shape="51.34,52.80 47.47,52.21 47.36,52.14"/>
    </edge>
    <edge id=":J1_12" function="internal">
        <lane id=":J1_12_0" index="0" speed="7.98" length="10.21" shape="47.36,52.14 44.74,50.52 43.15,47.73 42.69,43.85"/>
    </edge>
    <edge id=":J1_3" function="internal">
        <lane id=":J1_3_0" index="0" speed="6.48" length="9.03" shape="45.88,43.93 46.18,46.39 47.19,48.16 48.92,49.23 51.37,49.60"/>
    </edge>
    <edge id=":J1_4" function="internal">
        <lane id=":J1_4_0" index="0" speed="13.89" length="14.54" shape="45.88,43.93 45.50,58.46"/>
    </edge>
    <edge id=":J1_5" function="internal">
        <lane id=":J1_5_0" index="0" speed="8.11" length="4.10" shape="45.88,43.93 45.24,47.78 45.14,47.94"/>
    </edge>
    <edge id=":J1_13" function="internal">
        <lane id=":J1_13_0" index="0" speed="8.11" length="10.24" shape="45.14,47.94 43.51,50.53 40.70,52.18 36.82,52.73"/>
    </edge>
    <edge id=":J1_6" function="internal">
        <lane id=":J1_6_0" index="0" speed="6.64" length="9.26" shape="36.82,49.53 39.33,49.17 41.15,48.11 42.27,46.33 42.69,43.85"/>
    </edge>
    <edge id=":J1_7" function="internal">
        <lane id=":J1_7_0" index="0" speed="13.89" length="14.55" shape="36.82,49.53 51.37,49.60"/>
    </edge>
    <edge id=":J1_8" function="internal">
        <lane id=":J1_8_0" index="0" speed="7.95" length="4.13" shape="36.82,49.53 40.71,50.09 40.88,50.19"/>
    </edge>
    <edge id=":J1_14" function="internal">
        <lane id=":J1_14_0" index="0" speed="7.95" length="10.17" shape="40.88,50.19 43.46,51.76 45.05,54.56 45.50,58.46"/>
    </edge>
    <edge id=":J1_9" function="internal">
        <lane id=":J1_9_0" index="0" speed="6.45" length="9.03" shape="42.30,58.37 42.02,55.90 41.01,54.14 39.28,53.08 36.82,52.73"/>
    </edge>
    <edge id=":J1_10" function="internal">
        <lane id=":J1_10_0" index="0" speed="13.89" length="14.53" shape="42.30,58.37 42.69,43.85"/>
    </edge>
    <edge id=":J1_11" function="internal">
        <lane id=":J1_11_0" index="0" speed="8.09" length="4.09" shape="42.30,58.37 42.96,54.50 43.05,54.36"/>
    </edge>
    <edge id=":J1_15" function="internal">
        <lane id=":J1_15_0" index="0" speed="8.09" length="10.24" shape="43.05,54.36 44.70,51.75 47.50,50.12 51.37,49.60"/>
    </edge>

    <edge id="E01" from="J0" to="J1" priority="-1" length="800.00">
        <lane id="E01_0" index="0" speed="13.89" length="800.00" shape="-24.70,49.53 36.82,49.53"/>
    </edge>
    <edge id="E10" from="J1" to="J0" priority="-1" length="800.00">
        <lane id="E10_0" index="0" speed="13.89" length="800.00" shape="36.82,52.73 -24.70,52.73"/>
    </edge>
    <edge id="E12" from="J1" to="J2" priority="-1" length="800.00">
        <lane id="E12_0" index="0" speed="13.89" length="800.00" shape="45.50,58.46 44.32,100.05"/>
    </edge>
    <edge id="E13" from="J1" to="J3" priority="-1" length="800.00">
        <lane id="E13_0" index="0" speed="13.89" length="800.00" shape="42.69,43.85 43.72,1.00"/>
    </edge>
    <edge id="E14" from="J1" to="J4" priority="-1" length="800.00">
        <lane id="E14_0" index="0" speed="13.89" length="800.00" shape="51.37,49.60 112.07,50.22"/>
    </edge>
    <edge id="E21" from="J2" to="J1" priority="-1" length="800.00">
        <lane id="E21_0" index="0" speed="13.89" length="800.00" shape="41.12,99.95 42.30,58.37"/>
    </edge>
    <edge id="E31" from="J3" to="J1" priority="-1" length="800.00">
        <lane id="E31_0" index="0" speed="13.89" length="800.00" shape="46.92,1.08 45.88,43.93"/>
    </edge>
    <edge id="E41" from="J4" to="J1" priority="-1" length="800.00">
        <lane id="E41_0" index="0" speed="13.89" length="800.00" shape="112.03,53.42 51.34,52.80"/>
    </edge>

    <tlLogic id="J1" type="static" programID="0" offset="0">
        <phase duration="42" state="rrrGGgrrrGGg"/>
        <phase duration="3"  state="rrryyyrrryyy"/>
        <phase duration="42" state="GGgrrrGGgrrr"/>
        <phase duration="3"  state="yyyrrryyyrrr"/>
    </tlLogic>

    <junction id="J0" type="dead_end" x="-24.70" y="51.13" incLanes="E10_0" intLanes="" shape="-24.70,51.13 -24.70,54.33 -24.70,51.13"/>
    <junction id="J1" type="traffic_light" x="44.11" y="51.13" incLanes="E41_0 E31_0 E01_0 E21_0" intLanes=":J1_0_0 :J1_1_0 :J1_12_0 :J1_3_0 :J1_4_0 :J1_13_0 :J1_6_0 :J1_7_0 :J1_14_0 :J1_9_0 :J1_10_0 :J1_15_0" shape="51.32,54.40 51.39,48.00 49.18,47.54 48.41,46.97 47.87,46.19 47.57,45.19 47.48,43.96 41.09,43.81 40.57,46.10 39.97,46.90 39.14,47.47 38.09,47.82 36.82,47.93 36.82,54.33 39.03,54.77 39.79,55.33 40.32,56.11 40.63,57.11 40.70,58.33 47.10,58.51 47.62,56.21 48.22,55.41 49.03,54.84 50.07,54.51">
        <request index="0"  response="000000010000" foes="000100010000" cont="0"/>
        <request index="1"  response="111000110000" foes="111100110000" cont="0"/>
        <request index="2"  response="110011110000" foes="110111110000" cont="1"/>
        <request index="3"  response="000000000000" foes="100010000000" cont="0"/>
        <request index="4"  response="000100000100" foes="100110000111" cont="0"/>
        <request index="5"  response="011100000100" foes="111110000110" cont="1"/>
        <request index="6"  response="010000000000" foes="010000000100" cont="0"/>
        <request index="7"  response="110000111000" foes="110000111100" cont="0"/>
        <request index="8"  response="110000110111" foes="110000110111" cont="1"/>
        <request index="9"  response="000000000000" foes="000000100010" cont="0"/>
        <request index="10" response="000100000100" foes="000111100110" cont="0"/>
        <request index="11" response="000100111100" foes="000110111110" cont="1"/>
    </junction>
    <junction id="J2" type="dead_end" x="42.72" y="100.00" incLanes="E12_0" intLanes="" shape="42.72,100.00 45.92,100.09 42.72,100.00"/>
    <junction id="J3" type="dead_end" x="45.32" y="1.04" incLanes="E13_0" intLanes="" shape="45.32,1.04 42.12,0.96 45.32,1.04"/>
    <junction id="J4" type="dead_end" x="112.05" y="51.82" incLanes="E14_0" intLanes="" shape="112.05,51.82 112.08,48.62 112.05,51.82"/>

    <junction id=":J1_12_0" type="internal" x="47.36" y="52.14" incLanes=":J1_2_0 E01_0" intLanes=":J1_4_0 :J1_5_0 :J1_6_0 :J1_7_0 :J1_10_0 :J1_11_0"/>
    <junction id=":J1_13_0" type="internal" x="45.14" y="47.94" incLanes=":J1_5_0 E21_0" intLanes=":J1_1_0 :J1_2_0 :J1_7_0 :J1_8_0 :J1_9_0 :J1_10_0"/>
    <junction id=":J1_14_0" type="internal" x="40.88" y="50.19" incLanes=":J1_8_0 E41_0" intLanes=":J1_0_0 :J1_1_0 :J1_4_0 :J1_5_0 :J1_10_0 :J1_11_0"/>
    <junction id=":J1_15_0" type="internal" x="43.05" y="54.36" incLanes=":J1_11_0 E31_0" intLanes=":J1_1_0 :J1_2_0 :J1_3_0 :J1_4_0 :J1_7_0 :J1_8_0"/>

    <!-- <connection from="E01" to="E13" fromLane="0" toLane="0" via=":J1_6_0" tl="J1" linkIndex="6" dir="r" state="o"/>
    <connection from="E01" to="E14" fromLane="0" toLane="0" via=":J1_7_0" tl="J1" linkIndex="7" dir="s" state="o"/>
    <connection from="E01" to="E12" fromLane="0" toLane="0" via=":J1_8_0" tl="J1" linkIndex="8" dir="l" state="o"/>
    <connection from="E21" to="E10" fromLane="0" toLane="0" via=":J1_9_0" tl="J1" linkIndex="9" dir="r" state="O"/>
    <connection from="E21" to="E13" fromLane="0" toLane="0" via=":J1_10_0" tl="J1" linkIndex="10" dir="s" state="O"/>
    <connection from="E21" to="E14" fromLane="0" toLane="0" via=":J1_11_0" tl="J1" linkIndex="11" dir="l" state="o"/>
    <connection from="E31" to="E14" fromLane="0" toLane="0" via=":J1_3_0" tl="J1" linkIndex="3" dir="r" state="O"/>
    <connection from="E31" to="E12" fromLane="0" toLane="0" via=":J1_4_0" tl="J1" linkIndex="4" dir="s" state="O"/>
    <connection from="E31" to="E10" fromLane="0" toLane="0" via=":J1_5_0" tl="J1" linkIndex="5" dir="l" state="o"/>
    <connection from="E41" to="E12" fromLane="0" toLane="0" via=":J1_0_0" tl="J1" linkIndex="0" dir="r" state="o"/>
    <connection from="E41" to="E10" fromLane="0" toLane="0" via=":J1_1_0" tl="J1" linkIndex="1" dir="s" state="o"/>
    <connection from="E41" to="E13" fromLane="0" toLane="0" via=":J1_2_0" tl="J1" linkIndex="2" dir="l" state="o"/> -->
    <connection from="E01" to="E13" fromLane="0" toLane="0" via=":J1_6_0" tl="J1" linkIndex="0" dir="r" state="o"/>
    <connection from="E01" to="E14" fromLane="0" toLane="0" via=":J1_7_0" tl="J1" linkIndex="1" dir="s" state="o"/>
    <connection from="E01" to="E12" fromLane="0" toLane="0" via=":J1_8_0" tl="J1" linkIndex="2" dir="l" state="o"/>
    <connection from="E21" to="E10" fromLane="0" toLane="0" via=":J1_9_0" tl="J1" linkIndex="3" dir="r" state="O"/>
    <connection from="E21" to="E13" fromLane="0" toLane="0" via=":J1_10_0" tl="J1" linkIndex="4" dir="s" state="O"/>
    <connection from="E21" to="E14" fromLane="0" toLane="0" via=":J1_11_0" tl="J1" linkIndex="5" dir="l" state="o"/>
    <connection from="E41" to="E12" fromLane="0" toLane="0" via=":J1_0_0" tl="J1" linkIndex="6" dir="r" state="o"/>
    <connection from="E41" to="E10" fromLane="0" toLane="0" via=":J1_1_0" tl="J1" linkIndex="7" dir="s" state="o"/>
    <connection from="E41" to="E13" fromLane="0" toLane="0" via=":J1_2_0" tl="J1" linkIndex="8" dir="l" state="o"/>
    <connection from="E31" to="E14" fromLane="0" toLane="0" via=":J1_3_0" tl="J1" linkIndex="9" dir="r" state="O"/>
    <connection from="E31" to="E12" fromLane="0" toLane="0" via=":J1_4_0" tl="J1" linkIndex="10" dir="s" state="O"/>
    <connection from="E31" to="E10" fromLane="0" toLane="0" via=":J1_5_0" tl="J1" linkIndex="11" dir="l" state="o"/>
    

    <connection from=":J1_0" to="E12" fromLane="0" toLane="0" dir="r" state="M"/>
    <connection from=":J1_1" to="E10" fromLane="0" toLane="0" dir="s" state="M"/>
    <connection from=":J1_2" to="E13" fromLane="0" toLane="0" via=":J1_12_0" dir="l" state="m"/>
    <connection from=":J1_12" to="E13" fromLane="0" toLane="0" dir="l" state="M"/>
    <connection from=":J1_3" to="E14" fromLane="0" toLane="0" dir="r" state="M"/>
    <connection from=":J1_4" to="E12" fromLane="0" toLane="0" dir="s" state="M"/>
    <connection from=":J1_5" to="E10" fromLane="0" toLane="0" via=":J1_13_0" dir="l" state="m"/>
    <connection from=":J1_13" to="E10" fromLane="0" toLane="0" dir="l" state="M"/>
    <connection from=":J1_6" to="E13" fromLane="0" toLane="0" dir="r" state="M"/>
    <connection from=":J1_7" to="E14" fromLane="0" toLane="0" dir="s" state="M"/>
    <connection from=":J1_8" to="E12" fromLane="0" toLane="0" via=":J1_14_0" dir="l" state="m"/>
    <connection from=":J1_14" to="E12" fromLane="0" toLane="0" dir="l" state="M"/>
    <connection from=":J1_9" to="E10" fromLane="0" toLane="0" dir="r" state="M"/>
    <connection from=":J1_10" to="E13" fromLane="0" toLane="0" dir="s" state="M"/>
    <connection from=":J1_11" to="E14" fromLane="0" toLane="0" via=":J1_15_0" dir="l" state="m"/>
    <connection from=":J1_15" to="E14" fromLane="0" toLane="0" dir="l" state="M"/>

</net>
